To use this modified files for the simulation, remove the files:
bpred.h
bpred.c
sim-bpred.c
sim-outorder.c

Copy the same 4 files from here and place them in the simplescalar simulator files.

follow the prompts in the file "project_steps" as an idea to how to simulate. Remember to use your "path" in the prompts.

The excel file has a table to insert the simulated values to compare the different specifications simulated.

